<?xml version="1.0"?>

<routes xmlns:xsi="http://www.w3.org/2001/XMLSchema-instance" xsi:noNamespaceSchemaLocation="http://sumo.dlr.de/xsd/routes_file.xsd">

<vType id="type0" color="255,105,180" length = "8.0"/>
<vType id="type1" color="255,190,180" length = "8.0" carFollowModel = "IDM"/>
<vType id="type2" color="22,255,255" length = "3.5"/>
<vType id="type3" color="22,55,255" length = "3.5" carFollowModel = "IDM"/>

<route id="0" edges="m3 m4 m5 m6 m7 m8 m9"/> 
<route id="1" edges="m3 m4 m5 m6 m7 m8 rout1"/> 
<route id="2" edges="rlight1 rin3 m7 m8 m9"/> 
<vehicle id="0" depart="0.48" type="type3" route="2" departLane="0"/>

<vehicle id="1" depart="11.43" type="type0" route="0" departLane="4"/>

<vehicle id="2" depart="16.03" type="type3" route="2" departLane="0"/>

<vehicle id="3" depart="16.89" type="type3" route="2" departLane="0"/>

<vehicle id="4" depart="18.97" type="type3" route="0" departLane="4"/>

<vehicle id="5" depart="19.08" type="type0" route="2" departLane="0"/>

<vehicle id="6" depart="20.2" type="type2" route="0" departLane="1"/>

<vehicle id="7" depart="20.57" type="type2" route="0" departLane="4"/>

<vehicle id="8" depart="21.27" type="type2" route="0" departLane="3"/>

<vehicle id="9" depart="22.09" type="type2" route="0" departLane="4"/>

<vehicle id="10" depart="25.98" type="type3" route="0" departLane="1"/>

<vehicle id="11" depart="27.6" type="type2" route="1" departLane="4"/>

<vehicle id="12" depart="29.87" type="type2" route="0" departLane="2"/>

<vehicle id="13" depart="29.88" type="type1" route="0" departLane="4"/>

<vehicle id="14" depart="33.69" type="type2" route="0" departLane="0"/>

<vehicle id="15" depart="35.36" type="type3" route="0" departLane="4"/>

<vehicle id="16" depart="35.66" type="type3" route="0" departLane="1"/>

<vehicle id="17" depart="37.56" type="type3" route="0" departLane="1"/>

<vehicle id="18" depart="37.74" type="type2" route="0" departLane="4"/>

<vehicle id="19" depart="38.08" type="type0" route="2" departLane="0"/>

<vehicle id="20" depart="39.34" type="type3" route="2" departLane="0"/>

<vehicle id="21" depart="39.88" type="type3" route="2" departLane="0"/>

<vehicle id="22" depart="42.52" type="type3" route="1" departLane="0"/>

<vehicle id="23" depart="45.28" type="type2" route="2" departLane="0"/>

<vehicle id="24" depart="45.72" type="type2" route="0" departLane="3"/>

<vehicle id="25" depart="46.08" type="type2" route="0" departLane="2"/>

<vehicle id="26" depart="46.84" type="type2" route="0" departLane="0"/>

<vehicle id="27" depart="47.29" type="type3" route="0" departLane="4"/>

<vehicle id="28" depart="48.72" type="type0" route="0" departLane="3"/>

<vehicle id="29" depart="49.76" type="type3" route="0" departLane="4"/>

<vehicle id="30" depart="50.4" type="type2" route="2" departLane="0"/>

<vehicle id="31" depart="54.52" type="type3" route="2" departLane="0"/>

<vehicle id="32" depart="54.85" type="type3" route="2" departLane="0"/>

<vehicle id="33" depart="56.39" type="type1" route="0" departLane="3"/>

<vehicle id="34" depart="62.41" type="type2" route="0" departLane="1"/>

<vehicle id="35" depart="63.25" type="type2" route="0" departLane="2"/>

<vehicle id="36" depart="65.97" type="type1" route="1" departLane="1"/>

<vehicle id="37" depart="67.0" type="type2" route="1" departLane="0"/>

<vehicle id="38" depart="67.97" type="type2" route="2" departLane="0"/>

<vehicle id="39" depart="73.37" type="type2" route="2" departLane="0"/>

<vehicle id="40" depart="76.13" type="type2" route="0" departLane="1"/>

<vehicle id="41" depart="80.03" type="type2" route="1" departLane="4"/>

<vehicle id="42" depart="80.12" type="type3" route="2" departLane="0"/>

<vehicle id="43" depart="84.34" type="type0" route="1" departLane="1"/>

<vehicle id="44" depart="91.39" type="type3" route="2" departLane="0"/>

<vehicle id="45" depart="92.48" type="type3" route="1" departLane="0"/>

<vehicle id="46" depart="96.69" type="type0" route="2" departLane="0"/>

<vehicle id="47" depart="98.42" type="type2" route="2" departLane="0"/>

<vehicle id="48" depart="100.05" type="type2" route="1" departLane="2"/>

<vehicle id="49" depart="102.34" type="type2" route="2" departLane="0"/>

<vehicle id="50" depart="104.39" type="type3" route="2" departLane="0"/>

<vehicle id="51" depart="108.75" type="type2" route="0" departLane="0"/>

<vehicle id="52" depart="109.28" type="type1" route="1" departLane="2"/>

<vehicle id="53" depart="111.08" type="type0" route="0" departLane="4"/>

<vehicle id="54" depart="115.42" type="type2" route="0" departLane="2"/>

<vehicle id="55" depart="117.86" type="type2" route="1" departLane="4"/>

<vehicle id="56" depart="122.74" type="type2" route="0" departLane="1"/>

<vehicle id="57" depart="125.3" type="type1" route="0" departLane="0"/>

<vehicle id="58" depart="126.15" type="type2" route="0" departLane="0"/>

<vehicle id="59" depart="126.58" type="type1" route="1" departLane="4"/>

<vehicle id="60" depart="128.42" type="type0" route="1" departLane="2"/>

<vehicle id="61" depart="141.85" type="type1" route="2" departLane="0"/>

<vehicle id="62" depart="144.95" type="type3" route="2" departLane="0"/>

<vehicle id="63" depart="151.91" type="type0" route="2" departLane="0"/>

<vehicle id="64" depart="154.45" type="type2" route="1" departLane="4"/>

<vehicle id="65" depart="156.05" type="type2" route="0" departLane="1"/>

<vehicle id="66" depart="158.57" type="type3" route="0" departLane="3"/>

<vehicle id="67" depart="158.61" type="type2" route="0" departLane="1"/>

<vehicle id="68" depart="160.14" type="type2" route="2" departLane="0"/>

<vehicle id="69" depart="160.34" type="type1" route="0" departLane="4"/>

<vehicle id="70" depart="162.0" type="type1" route="0" departLane="0"/>

<vehicle id="71" depart="162.04" type="type2" route="1" departLane="3"/>

<vehicle id="72" depart="163.33" type="type3" route="1" departLane="4"/>

<vehicle id="73" depart="164.76" type="type2" route="2" departLane="0"/>

<vehicle id="74" depart="167.9" type="type2" route="2" departLane="0"/>

<vehicle id="75" depart="168.68" type="type3" route="2" departLane="0"/>

<vehicle id="76" depart="172.74" type="type2" route="2" departLane="0"/>

<vehicle id="77" depart="174.89" type="type1" route="0" departLane="0"/>

<vehicle id="78" depart="175.96" type="type3" route="2" departLane="0"/>

<vehicle id="79" depart="176.33" type="type3" route="0" departLane="1"/>

<vehicle id="80" depart="180.89" type="type0" route="2" departLane="0"/>

<vehicle id="81" depart="181.1" type="type2" route="2" departLane="0"/>

<vehicle id="82" depart="182.63" type="type1" route="2" departLane="0"/>

<vehicle id="83" depart="188.81" type="type0" route="0" departLane="2"/>

<vehicle id="84" depart="189.84" type="type3" route="2" departLane="0"/>

<vehicle id="85" depart="190.38" type="type3" route="2" departLane="0"/>

<vehicle id="86" depart="196.24" type="type2" route="0" departLane="1"/>

<vehicle id="87" depart="202.11" type="type3" route="2" departLane="0"/>

<vehicle id="88" depart="204.21" type="type2" route="2" departLane="0"/>

<vehicle id="89" depart="205.05" type="type3" route="2" departLane="0"/>

<vehicle id="90" depart="205.46" type="type3" route="2" departLane="0"/>

<vehicle id="91" depart="206.07" type="type1" route="0" departLane="0"/>

<vehicle id="92" depart="206.84" type="type2" route="2" departLane="0"/>

<vehicle id="93" depart="209.0" type="type3" route="1" departLane="1"/>

<vehicle id="94" depart="211.98" type="type3" route="0" departLane="0"/>

<vehicle id="95" depart="212.58" type="type2" route="1" departLane="1"/>

<vehicle id="96" depart="213.22" type="type2" route="0" departLane="1"/>

<vehicle id="97" depart="214.62" type="type1" route="1" departLane="1"/>

<vehicle id="98" depart="220.36" type="type2" route="2" departLane="0"/>

<vehicle id="99" depart="221.53" type="type1" route="2" departLane="0"/>

<vehicle id="100" depart="223.15" type="type0" route="0" departLane="1"/>

<vehicle id="101" depart="224.17" type="type3" route="0" departLane="0"/>

<vehicle id="102" depart="224.33" type="type1" route="1" departLane="1"/>

<vehicle id="103" depart="225.34" type="type2" route="0" departLane="2"/>

<vehicle id="104" depart="227.32" type="type3" route="2" departLane="0"/>

<vehicle id="105" depart="232.53" type="type3" route="2" departLane="0"/>

<vehicle id="106" depart="233.66" type="type2" route="0" departLane="1"/>

<vehicle id="107" depart="234.56" type="type2" route="2" departLane="0"/>

<vehicle id="108" depart="235.13" type="type3" route="2" departLane="0"/>

<vehicle id="109" depart="236.41" type="type1" route="2" departLane="0"/>

<vehicle id="110" depart="237.92" type="type0" route="0" departLane="4"/>

<vehicle id="111" depart="238.38" type="type2" route="0" departLane="3"/>

<vehicle id="112" depart="241.75" type="type3" route="2" departLane="0"/>

<vehicle id="113" depart="242.75" type="type2" route="0" departLane="4"/>

<vehicle id="114" depart="244.23" type="type1" route="2" departLane="0"/>

<vehicle id="115" depart="248.68" type="type3" route="1" departLane="1"/>

<vehicle id="116" depart="250.16" type="type3" route="0" departLane="0"/>

<vehicle id="117" depart="250.57" type="type1" route="2" departLane="0"/>

<vehicle id="118" depart="250.92" type="type2" route="0" departLane="0"/>

<vehicle id="119" depart="252.14" type="type2" route="2" departLane="0"/>

<vehicle id="120" depart="252.41" type="type1" route="2" departLane="0"/>

<vehicle id="121" depart="255.42" type="type2" route="2" departLane="0"/>

<vehicle id="122" depart="261.83" type="type3" route="2" departLane="0"/>

<vehicle id="123" depart="265.56" type="type2" route="0" departLane="2"/>

<vehicle id="124" depart="267.57" type="type3" route="1" departLane="0"/>

<vehicle id="125" depart="274.44" type="type3" route="0" departLane="4"/>

<vehicle id="126" depart="275.77" type="type2" route="0" departLane="2"/>

<vehicle id="127" depart="276.12" type="type0" route="2" departLane="0"/>

<vehicle id="128" depart="276.36" type="type1" route="2" departLane="0"/>

<vehicle id="129" depart="278.41" type="type1" route="0" departLane="4"/>

<vehicle id="130" depart="288.86" type="type2" route="0" departLane="0"/>

<vehicle id="131" depart="289.94" type="type1" route="2" departLane="0"/>

<vehicle id="132" depart="290.1" type="type2" route="0" departLane="2"/>

<vehicle id="133" depart="291.2" type="type3" route="0" departLane="3"/>

<vehicle id="134" depart="291.7" type="type2" route="2" departLane="0"/>

<vehicle id="135" depart="294.22" type="type1" route="2" departLane="0"/>

<vehicle id="136" depart="294.47" type="type3" route="2" departLane="0"/>

<vehicle id="137" depart="296.23" type="type2" route="0" departLane="2"/>

<vehicle id="138" depart="302.12" type="type3" route="2" departLane="0"/>

<vehicle id="139" depart="302.72" type="type3" route="1" departLane="1"/>

<vehicle id="140" depart="305.37" type="type0" route="0" departLane="3"/>

<vehicle id="141" depart="312.04" type="type3" route="0" departLane="1"/>

<vehicle id="142" depart="312.43" type="type3" route="1" departLane="0"/>

<vehicle id="143" depart="320.21" type="type2" route="2" departLane="0"/>

<vehicle id="144" depart="322.18" type="type2" route="2" departLane="0"/>

<vehicle id="145" depart="322.65" type="type3" route="0" departLane="4"/>

<vehicle id="146" depart="322.9" type="type3" route="2" departLane="0"/>

<vehicle id="147" depart="325.62" type="type3" route="0" departLane="3"/>

<vehicle id="148" depart="326.42" type="type2" route="0" departLane="0"/>

<vehicle id="149" depart="328.88" type="type2" route="2" departLane="0"/>

<vehicle id="150" depart="331.77" type="type3" route="2" departLane="0"/>

<vehicle id="151" depart="334.96" type="type3" route="0" departLane="3"/>

<vehicle id="152" depart="337.31" type="type0" route="2" departLane="0"/>

<vehicle id="153" depart="340.91" type="type3" route="0" departLane="0"/>

<vehicle id="154" depart="341.64" type="type2" route="0" departLane="4"/>

<vehicle id="155" depart="341.68" type="type3" route="0" departLane="0"/>

<vehicle id="156" depart="342.36" type="type2" route="2" departLane="0"/>

<vehicle id="157" depart="343.48" type="type2" route="0" departLane="0"/>

<vehicle id="158" depart="348.32" type="type2" route="1" departLane="1"/>

<vehicle id="159" depart="349.41" type="type2" route="2" departLane="0"/>

<vehicle id="160" depart="349.59" type="type2" route="0" departLane="3"/>

<vehicle id="161" depart="350.01" type="type3" route="0" departLane="4"/>

<vehicle id="162" depart="354.62" type="type2" route="2" departLane="0"/>

<vehicle id="163" depart="354.83" type="type2" route="0" departLane="4"/>

<vehicle id="164" depart="356.14" type="type3" route="2" departLane="0"/>

<vehicle id="165" depart="356.34" type="type3" route="2" departLane="0"/>

<vehicle id="166" depart="359.18" type="type2" route="2" departLane="0"/>

<vehicle id="167" depart="364.75" type="type2" route="2" departLane="0"/>

<vehicle id="168" depart="367.47" type="type2" route="0" departLane="2"/>

<vehicle id="169" depart="369.41" type="type3" route="0" departLane="4"/>

<vehicle id="170" depart="372.89" type="type3" route="0" departLane="0"/>

<vehicle id="171" depart="373.04" type="type2" route="0" departLane="0"/>

<vehicle id="172" depart="373.07" type="type3" route="1" departLane="3"/>

<vehicle id="173" depart="374.96" type="type2" route="0" departLane="0"/>

<vehicle id="174" depart="375.82" type="type0" route="0" departLane="3"/>

<vehicle id="175" depart="377.14" type="type2" route="0" departLane="1"/>

<vehicle id="176" depart="377.75" type="type3" route="0" departLane="1"/>

<vehicle id="177" depart="378.92" type="type3" route="2" departLane="0"/>

<vehicle id="178" depart="381.7" type="type3" route="0" departLane="0"/>

<vehicle id="179" depart="386.37" type="type2" route="2" departLane="0"/>

<vehicle id="180" depart="386.93" type="type3" route="2" departLane="0"/>

<vehicle id="181" depart="387.65" type="type2" route="0" departLane="1"/>

<vehicle id="182" depart="388.34" type="type2" route="2" departLane="0"/>

<vehicle id="183" depart="396.04" type="type2" route="1" departLane="1"/>

<vehicle id="184" depart="404.49" type="type2" route="0" departLane="2"/>

<vehicle id="185" depart="405.78" type="type3" route="2" departLane="0"/>

<vehicle id="186" depart="412.58" type="type2" route="0" departLane="4"/>

<vehicle id="187" depart="417.56" type="type1" route="2" departLane="0"/>

<vehicle id="188" depart="423.77" type="type0" route="2" departLane="0"/>

<vehicle id="189" depart="426.42" type="type3" route="0" departLane="0"/>

<vehicle id="190" depart="426.86" type="type3" route="0" departLane="3"/>

<vehicle id="191" depart="429.42" type="type1" route="2" departLane="0"/>

<vehicle id="192" depart="434.58" type="type3" route="1" departLane="0"/>

<vehicle id="193" depart="435.38" type="type3" route="0" departLane="2"/>

<vehicle id="194" depart="436.43" type="type3" route="2" departLane="0"/>

<vehicle id="195" depart="436.94" type="type2" route="0" departLane="3"/>

<vehicle id="196" depart="437.73" type="type0" route="2" departLane="0"/>

<vehicle id="197" depart="438.71" type="type3" route="0" departLane="0"/>

<vehicle id="198" depart="439.8" type="type3" route="0" departLane="4"/>

<vehicle id="199" depart="440.04" type="type2" route="0" departLane="1"/>

<vehicle id="200" depart="445.74" type="type1" route="2" departLane="0"/>

<vehicle id="201" depart="451.27" type="type0" route="1" departLane="4"/>

<vehicle id="202" depart="455.17" type="type3" route="2" departLane="0"/>

<vehicle id="203" depart="456.21" type="type2" route="0" departLane="3"/>

<vehicle id="204" depart="458.97" type="type0" route="0" departLane="3"/>

<vehicle id="205" depart="464.67" type="type0" route="0" departLane="1"/>

<vehicle id="206" depart="466.78" type="type3" route="0" departLane="3"/>

<vehicle id="207" depart="476.03" type="type3" route="0" departLane="0"/>

<vehicle id="208" depart="478.0" type="type2" route="0" departLane="2"/>

<vehicle id="209" depart="478.85" type="type2" route="1" departLane="2"/>

<vehicle id="210" depart="481.97" type="type0" route="0" departLane="0"/>

<vehicle id="211" depart="484.33" type="type3" route="0" departLane="3"/>

<vehicle id="212" depart="484.44" type="type2" route="1" departLane="1"/>

<vehicle id="213" depart="492.94" type="type3" route="0" departLane="1"/>

<vehicle id="214" depart="493.29" type="type2" route="0" departLane="0"/>

<vehicle id="215" depart="495.97" type="type2" route="0" departLane="1"/>

<vehicle id="216" depart="497.03" type="type2" route="0" departLane="0"/>

<vehicle id="217" depart="503.51" type="type2" route="2" departLane="0"/>

<vehicle id="218" depart="504.08" type="type0" route="2" departLane="0"/>

<vehicle id="219" depart="504.52" type="type2" route="0" departLane="4"/>

<vehicle id="220" depart="505.55" type="type2" route="0" departLane="1"/>

<vehicle id="221" depart="506.19" type="type2" route="2" departLane="0"/>

<vehicle id="222" depart="507.67" type="type3" route="1" departLane="0"/>

<vehicle id="223" depart="508.71" type="type3" route="2" departLane="0"/>

<vehicle id="224" depart="512.2" type="type3" route="0" departLane="1"/>

<vehicle id="225" depart="522.43" type="type3" route="0" departLane="4"/>

<vehicle id="226" depart="522.9" type="type3" route="2" departLane="0"/>

<vehicle id="227" depart="523.97" type="type2" route="0" departLane="0"/>

<vehicle id="228" depart="524.09" type="type2" route="2" departLane="0"/>

<vehicle id="229" depart="525.07" type="type2" route="2" departLane="0"/>

<vehicle id="230" depart="526.97" type="type2" route="0" departLane="3"/>

<vehicle id="231" depart="530.4" type="type2" route="0" departLane="2"/>

<vehicle id="232" depart="530.68" type="type2" route="0" departLane="3"/>

<vehicle id="233" depart="543.28" type="type3" route="1" departLane="3"/>

<vehicle id="234" depart="556.46" type="type3" route="2" departLane="0"/>

<vehicle id="235" depart="557.93" type="type2" route="0" departLane="2"/>

<vehicle id="236" depart="558.39" type="type2" route="2" departLane="0"/>

<vehicle id="237" depart="559.73" type="type3" route="2" departLane="0"/>

<vehicle id="238" depart="559.82" type="type3" route="0" departLane="0"/>

<vehicle id="239" depart="562.56" type="type2" route="0" departLane="4"/>

<vehicle id="240" depart="563.57" type="type3" route="2" departLane="0"/>

<vehicle id="241" depart="566.79" type="type0" route="0" departLane="4"/>

<vehicle id="242" depart="568.43" type="type3" route="1" departLane="4"/>

<vehicle id="243" depart="570.48" type="type3" route="1" departLane="3"/>

<vehicle id="244" depart="576.9" type="type1" route="2" departLane="0"/>

<vehicle id="245" depart="586.94" type="type2" route="1" departLane="3"/>

<vehicle id="246" depart="602.38" type="type3" route="0" departLane="1"/>

<vehicle id="247" depart="604.6" type="type2" route="2" departLane="0"/>

<vehicle id="248" depart="604.63" type="type3" route="1" departLane="0"/>

<vehicle id="249" depart="604.66" type="type0" route="2" departLane="0"/>

<vehicle id="250" depart="606.52" type="type3" route="0" departLane="1"/>

<vehicle id="251" depart="607.07" type="type3" route="2" departLane="0"/>

<vehicle id="252" depart="611.69" type="type2" route="1" departLane="3"/>

<vehicle id="253" depart="613.77" type="type3" route="2" departLane="0"/>

<vehicle id="254" depart="615.22" type="type2" route="2" departLane="0"/>

<vehicle id="255" depart="616.9" type="type3" route="0" departLane="0"/>

<vehicle id="256" depart="621.12" type="type3" route="0" departLane="4"/>

<vehicle id="257" depart="621.86" type="type3" route="0" departLane="0"/>

<vehicle id="258" depart="623.0" type="type1" route="0" departLane="0"/>

<vehicle id="259" depart="623.15" type="type2" route="2" departLane="0"/>

<vehicle id="260" depart="626.28" type="type0" route="2" departLane="0"/>

<vehicle id="261" depart="628.46" type="type2" route="0" departLane="1"/>

<vehicle id="262" depart="628.77" type="type0" route="0" departLane="3"/>

<vehicle id="263" depart="629.29" type="type3" route="1" departLane="0"/>

<vehicle id="264" depart="637.01" type="type0" route="0" departLane="1"/>

<vehicle id="265" depart="638.38" type="type2" route="0" departLane="4"/>

<vehicle id="266" depart="641.53" type="type3" route="2" departLane="0"/>

<vehicle id="267" depart="643.0" type="type1" route="0" departLane="0"/>

<vehicle id="268" depart="643.08" type="type3" route="0" departLane="2"/>

<vehicle id="269" depart="646.69" type="type0" route="2" departLane="0"/>

<vehicle id="270" depart="647.35" type="type2" route="2" departLane="0"/>

<vehicle id="271" depart="650.49" type="type3" route="0" departLane="4"/>

<vehicle id="272" depart="657.02" type="type3" route="0" departLane="3"/>

<vehicle id="273" depart="657.75" type="type2" route="2" departLane="0"/>

<vehicle id="274" depart="660.34" type="type2" route="0" departLane="0"/>

<vehicle id="275" depart="663.1" type="type2" route="2" departLane="0"/>

<vehicle id="276" depart="665.56" type="type3" route="0" departLane="1"/>

<vehicle id="277" depart="668.65" type="type3" route="1" departLane="2"/>

<vehicle id="278" depart="671.48" type="type2" route="0" departLane="1"/>

<vehicle id="279" depart="674.34" type="type2" route="0" departLane="2"/>

<vehicle id="280" depart="677.72" type="type0" route="0" departLane="3"/>

<vehicle id="281" depart="679.82" type="type3" route="0" departLane="0"/>

<vehicle id="282" depart="680.45" type="type3" route="0" departLane="2"/>

<vehicle id="283" depart="682.04" type="type2" route="0" departLane="2"/>

<vehicle id="284" depart="682.08" type="type2" route="0" departLane="4"/>

<vehicle id="285" depart="683.03" type="type2" route="0" departLane="3"/>

<vehicle id="286" depart="683.88" type="type0" route="0" departLane="3"/>

<vehicle id="287" depart="687.93" type="type2" route="2" departLane="0"/>

<vehicle id="288" depart="688.94" type="type3" route="0" departLane="0"/>

<vehicle id="289" depart="689.08" type="type3" route="1" departLane="0"/>

<vehicle id="290" depart="700.19" type="type0" route="0" departLane="3"/>

<vehicle id="291" depart="701.13" type="type3" route="0" departLane="0"/>

<vehicle id="292" depart="702.3" type="type0" route="2" departLane="0"/>

<vehicle id="293" depart="713.24" type="type0" route="2" departLane="0"/>

<vehicle id="294" depart="713.62" type="type1" route="2" departLane="0"/>

<vehicle id="295" depart="717.07" type="type3" route="0" departLane="2"/>

<vehicle id="296" depart="718.8" type="type0" route="0" departLane="3"/>

<vehicle id="297" depart="723.23" type="type3" route="0" departLane="1"/>

<vehicle id="298" depart="727.68" type="type1" route="0" departLane="1"/>

<vehicle id="299" depart="728.56" type="type2" route="2" departLane="0"/>

<vehicle id="300" depart="732.02" type="type3" route="0" departLane="1"/>

<vehicle id="301" depart="732.83" type="type3" route="0" departLane="4"/>

<vehicle id="302" depart="743.55" type="type2" route="2" departLane="0"/>

<vehicle id="303" depart="748.29" type="type0" route="0" departLane="1"/>

<vehicle id="304" depart="755.75" type="type2" route="0" departLane="3"/>

<vehicle id="305" depart="761.88" type="type3" route="0" departLane="1"/>

<vehicle id="306" depart="761.9" type="type2" route="0" departLane="3"/>

<vehicle id="307" depart="764.67" type="type2" route="0" departLane="2"/>

<vehicle id="308" depart="769.02" type="type1" route="0" departLane="3"/>

<vehicle id="309" depart="769.22" type="type3" route="2" departLane="0"/>

<vehicle id="310" depart="770.49" type="type2" route="0" departLane="2"/>

<vehicle id="311" depart="772.28" type="type1" route="1" departLane="1"/>

<vehicle id="312" depart="772.41" type="type1" route="0" departLane="1"/>

<vehicle id="313" depart="773.75" type="type3" route="0" departLane="4"/>

<vehicle id="314" depart="775.11" type="type2" route="2" departLane="0"/>

<vehicle id="315" depart="778.81" type="type1" route="0" departLane="4"/>

<vehicle id="316" depart="787.8" type="type2" route="2" departLane="0"/>

<vehicle id="317" depart="792.81" type="type1" route="2" departLane="0"/>

<vehicle id="318" depart="793.6" type="type3" route="0" departLane="3"/>

<vehicle id="319" depart="794.57" type="type0" route="2" departLane="0"/>

<vehicle id="320" depart="798.52" type="type2" route="2" departLane="0"/>

<vehicle id="321" depart="799.81" type="type2" route="0" departLane="0"/>

<vehicle id="322" depart="801.28" type="type2" route="0" departLane="1"/>

<vehicle id="323" depart="801.65" type="type1" route="1" departLane="4"/>

<vehicle id="324" depart="803.17" type="type3" route="1" departLane="2"/>

<vehicle id="325" depart="806.73" type="type0" route="2" departLane="0"/>

<vehicle id="326" depart="811.07" type="type2" route="1" departLane="2"/>

<vehicle id="327" depart="817.84" type="type3" route="0" departLane="2"/>

<vehicle id="328" depart="821.7" type="type0" route="2" departLane="0"/>

<vehicle id="329" depart="830.37" type="type3" route="2" departLane="0"/>

<vehicle id="330" depart="835.87" type="type3" route="2" departLane="0"/>

<vehicle id="331" depart="836.95" type="type3" route="2" departLane="0"/>

<vehicle id="332" depart="838.54" type="type3" route="1" departLane="1"/>

<vehicle id="333" depart="840.63" type="type2" route="0" departLane="2"/>

<vehicle id="334" depart="846.45" type="type2" route="0" departLane="2"/>

<vehicle id="335" depart="847.39" type="type0" route="2" departLane="0"/>

<vehicle id="336" depart="847.83" type="type2" route="1" departLane="2"/>

<vehicle id="337" depart="848.48" type="type3" route="2" departLane="0"/>

<vehicle id="338" depart="849.88" type="type2" route="0" departLane="0"/>

<vehicle id="339" depart="852.28" type="type2" route="2" departLane="0"/>

<vehicle id="340" depart="857.06" type="type1" route="2" departLane="0"/>

<vehicle id="341" depart="861.28" type="type3" route="2" departLane="0"/>

<vehicle id="342" depart="865.36" type="type3" route="2" departLane="0"/>

<vehicle id="343" depart="867.25" type="type3" route="0" departLane="0"/>

<vehicle id="344" depart="871.96" type="type3" route="2" departLane="0"/>

<vehicle id="345" depart="877.57" type="type3" route="0" departLane="4"/>

<vehicle id="346" depart="879.7" type="type2" route="0" departLane="2"/>

<vehicle id="347" depart="881.8" type="type3" route="2" departLane="0"/>

<vehicle id="348" depart="882.05" type="type2" route="0" departLane="0"/>

<vehicle id="349" depart="882.16" type="type3" route="1" departLane="2"/>

<vehicle id="350" depart="884.9" type="type2" route="0" departLane="0"/>

<vehicle id="351" depart="887.05" type="type3" route="2" departLane="0"/>

<vehicle id="352" depart="887.2" type="type3" route="1" departLane="3"/>

<vehicle id="353" depart="888.41" type="type2" route="2" departLane="0"/>

<vehicle id="354" depart="891.3" type="type2" route="0" departLane="0"/>

<vehicle id="355" depart="894.97" type="type1" route="0" departLane="3"/>

<vehicle id="356" depart="898.56" type="type2" route="2" departLane="0"/>

<vehicle id="357" depart="901.85" type="type3" route="2" departLane="0"/>

<vehicle id="358" depart="902.94" type="type2" route="1" departLane="2"/>

<vehicle id="359" depart="910.8" type="type2" route="1" departLane="1"/>

<vehicle id="360" depart="911.53" type="type2" route="0" departLane="2"/>

<vehicle id="361" depart="912.33" type="type3" route="0" departLane="0"/>

<vehicle id="362" depart="914.7" type="type3" route="0" departLane="4"/>

<vehicle id="363" depart="914.88" type="type1" route="0" departLane="3"/>

<vehicle id="364" depart="915.83" type="type0" route="0" departLane="4"/>

<vehicle id="365" depart="918.84" type="type3" route="0" departLane="2"/>

<vehicle id="366" depart="922.16" type="type2" route="0" departLane="0"/>

<vehicle id="367" depart="925.98" type="type1" route="2" departLane="0"/>

<vehicle id="368" depart="926.02" type="type3" route="2" departLane="0"/>

<vehicle id="369" depart="926.82" type="type2" route="2" departLane="0"/>

<vehicle id="370" depart="928.2" type="type3" route="0" departLane="0"/>

<vehicle id="371" depart="928.78" type="type3" route="0" departLane="4"/>

<vehicle id="372" depart="929.33" type="type3" route="0" departLane="4"/>

<vehicle id="373" depart="929.99" type="type2" route="0" departLane="4"/>

<vehicle id="374" depart="934.12" type="type3" route="0" departLane="0"/>

<vehicle id="375" depart="936.91" type="type2" route="2" departLane="0"/>

<vehicle id="376" depart="947.62" type="type1" route="2" departLane="0"/>

<vehicle id="377" depart="951.04" type="type2" route="2" departLane="0"/>

<vehicle id="378" depart="952.09" type="type1" route="0" departLane="1"/>

<vehicle id="379" depart="955.99" type="type2" route="2" departLane="0"/>

<vehicle id="380" depart="956.77" type="type0" route="0" departLane="4"/>

<vehicle id="381" depart="958.99" type="type2" route="2" departLane="0"/>

<vehicle id="382" depart="959.31" type="type2" route="2" departLane="0"/>

<vehicle id="383" depart="962.47" type="type0" route="0" departLane="4"/>

<vehicle id="384" depart="963.1" type="type0" route="1" departLane="3"/>

<vehicle id="385" depart="964.01" type="type2" route="1" departLane="4"/>

<vehicle id="386" depart="966.83" type="type2" route="2" departLane="0"/>

<vehicle id="387" depart="968.64" type="type1" route="2" departLane="0"/>

<vehicle id="388" depart="970.14" type="type3" route="0" departLane="0"/>

<vehicle id="389" depart="971.15" type="type3" route="0" departLane="3"/>

<vehicle id="390" depart="973.76" type="type2" route="2" departLane="0"/>

<vehicle id="391" depart="974.1" type="type2" route="2" departLane="0"/>

<vehicle id="392" depart="974.94" type="type2" route="1" departLane="0"/>

<vehicle id="393" depart="977.66" type="type3" route="0" departLane="1"/>

<vehicle id="394" depart="979.28" type="type2" route="2" departLane="0"/>
