<?xml version="1.0"?>

<routes xmlns:xsi="http://www.w3.org/2001/XMLSchema-instance" xsi:noNamespaceSchemaLocation="http://sumo.dlr.de/xsd/routes_file.xsd">

<vType id="type0" color="255,105,180" length = "8.0"/>
<vType id="type1" color="255,190,180" length = "8.0" carFollowModel = "IDM"/>
<vType id="type2" color="22,255,255" length = "3.5"/>
<vType id="type3" color="22,55,255" length = "3.5" carFollowModel = "IDM"/>

<route id="0" edges="m3 m4 m5 m6 m7 m8 m9"/> 
<route id="1" edges="m3 m4 m5 m6 m7 m8 rout1"/> 
<route id="2" edges="rlight1 rin3 m7 m8 m9"/> 
<vehicle id="0" depart="0.57" type="type0" route="2" departLane="0"/>

<vehicle id="1" depart="0.61" type="type2" route="0" departLane="3"/>

<vehicle id="2" depart="1.26" type="type0" route="2" departLane="0"/>

<vehicle id="3" depart="3.67" type="type2" route="0" departLane="2"/>

<vehicle id="4" depart="8.11" type="type2" route="2" departLane="0"/>

<vehicle id="5" depart="10.97" type="type3" route="0" departLane="1"/>

<vehicle id="6" depart="12.78" type="type3" route="0" departLane="3"/>

<vehicle id="7" depart="13.45" type="type2" route="0" departLane="0"/>

<vehicle id="8" depart="18.89" type="type3" route="2" departLane="0"/>

<vehicle id="9" depart="18.89" type="type3" route="0" departLane="2"/>

<vehicle id="10" depart="23.18" type="type1" route="1" departLane="1"/>

<vehicle id="11" depart="23.24" type="type2" route="0" departLane="4"/>

<vehicle id="12" depart="24.11" type="type2" route="2" departLane="0"/>

<vehicle id="13" depart="24.28" type="type0" route="2" departLane="0"/>

<vehicle id="14" depart="26.01" type="type2" route="1" departLane="0"/>

<vehicle id="15" depart="27.12" type="type2" route="2" departLane="0"/>

<vehicle id="16" depart="30.79" type="type3" route="0" departLane="4"/>

<vehicle id="17" depart="31.24" type="type3" route="0" departLane="4"/>

<vehicle id="18" depart="31.53" type="type3" route="0" departLane="1"/>

<vehicle id="19" depart="31.74" type="type0" route="1" departLane="2"/>

<vehicle id="20" depart="32.73" type="type3" route="0" departLane="2"/>

<vehicle id="21" depart="33.3" type="type3" route="1" departLane="4"/>

<vehicle id="22" depart="36.38" type="type2" route="0" departLane="3"/>

<vehicle id="23" depart="38.43" type="type3" route="2" departLane="0"/>

<vehicle id="24" depart="42.21" type="type2" route="1" departLane="2"/>

<vehicle id="25" depart="49.75" type="type3" route="0" departLane="4"/>

<vehicle id="26" depart="52.5" type="type3" route="2" departLane="0"/>

<vehicle id="27" depart="53.52" type="type2" route="2" departLane="0"/>

<vehicle id="28" depart="53.92" type="type2" route="1" departLane="2"/>

<vehicle id="29" depart="55.47" type="type0" route="1" departLane="3"/>

<vehicle id="30" depart="56.02" type="type3" route="1" departLane="3"/>

<vehicle id="31" depart="56.75" type="type3" route="0" departLane="3"/>

<vehicle id="32" depart="59.22" type="type3" route="2" departLane="0"/>

<vehicle id="33" depart="60.7" type="type3" route="0" departLane="0"/>

<vehicle id="34" depart="61.82" type="type3" route="0" departLane="2"/>

<vehicle id="35" depart="62.18" type="type3" route="0" departLane="4"/>

<vehicle id="36" depart="62.29" type="type2" route="2" departLane="0"/>

<vehicle id="37" depart="66.32" type="type2" route="2" departLane="0"/>

<vehicle id="38" depart="71.08" type="type3" route="2" departLane="0"/>

<vehicle id="39" depart="71.31" type="type3" route="0" departLane="1"/>

<vehicle id="40" depart="76.3" type="type2" route="1" departLane="0"/>

<vehicle id="41" depart="77.76" type="type0" route="2" departLane="0"/>

<vehicle id="42" depart="78.38" type="type1" route="0" departLane="4"/>

<vehicle id="43" depart="79.22" type="type2" route="0" departLane="0"/>

<vehicle id="44" depart="80.64" type="type2" route="1" departLane="1"/>

<vehicle id="45" depart="85.32" type="type0" route="1" departLane="1"/>

<vehicle id="46" depart="86.33" type="type0" route="2" departLane="0"/>

<vehicle id="47" depart="92.86" type="type0" route="0" departLane="1"/>

<vehicle id="48" depart="93.73" type="type3" route="0" departLane="0"/>

<vehicle id="49" depart="97.1" type="type2" route="0" departLane="3"/>

<vehicle id="50" depart="99.19" type="type2" route="2" departLane="0"/>

<vehicle id="51" depart="102.09" type="type3" route="0" departLane="3"/>

<vehicle id="52" depart="109.86" type="type3" route="0" departLane="2"/>

<vehicle id="53" depart="111.62" type="type2" route="0" departLane="4"/>

<vehicle id="54" depart="111.74" type="type1" route="0" departLane="3"/>

<vehicle id="55" depart="112.22" type="type3" route="0" departLane="1"/>

<vehicle id="56" depart="114.42" type="type0" route="1" departLane="2"/>

<vehicle id="57" depart="115.38" type="type3" route="0" departLane="1"/>

<vehicle id="58" depart="119.2" type="type2" route="0" departLane="3"/>

<vehicle id="59" depart="124.64" type="type2" route="1" departLane="4"/>

<vehicle id="60" depart="125.44" type="type2" route="0" departLane="1"/>

<vehicle id="61" depart="125.82" type="type1" route="0" departLane="3"/>

<vehicle id="62" depart="126.01" type="type3" route="0" departLane="3"/>

<vehicle id="63" depart="134.55" type="type2" route="1" departLane="0"/>

<vehicle id="64" depart="135.01" type="type3" route="0" departLane="4"/>

<vehicle id="65" depart="135.32" type="type3" route="0" departLane="3"/>

<vehicle id="66" depart="139.42" type="type2" route="2" departLane="0"/>

<vehicle id="67" depart="144.35" type="type3" route="0" departLane="1"/>

<vehicle id="68" depart="144.44" type="type3" route="1" departLane="1"/>

<vehicle id="69" depart="148.58" type="type3" route="1" departLane="0"/>

<vehicle id="70" depart="150.63" type="type2" route="2" departLane="0"/>

<vehicle id="71" depart="154.29" type="type2" route="0" departLane="0"/>

<vehicle id="72" depart="155.39" type="type2" route="2" departLane="0"/>

<vehicle id="73" depart="158.35" type="type2" route="0" departLane="4"/>

<vehicle id="74" depart="158.94" type="type3" route="2" departLane="0"/>

<vehicle id="75" depart="164.72" type="type3" route="2" departLane="0"/>

<vehicle id="76" depart="166.14" type="type1" route="0" departLane="2"/>

<vehicle id="77" depart="167.54" type="type3" route="2" departLane="0"/>

<vehicle id="78" depart="168.14" type="type2" route="2" departLane="0"/>

<vehicle id="79" depart="169.84" type="type1" route="1" departLane="1"/>

<vehicle id="80" depart="172.01" type="type3" route="0" departLane="2"/>

<vehicle id="81" depart="172.24" type="type1" route="1" departLane="3"/>

<vehicle id="82" depart="184.38" type="type3" route="2" departLane="0"/>

<vehicle id="83" depart="188.02" type="type0" route="2" departLane="0"/>

<vehicle id="84" depart="188.95" type="type3" route="0" departLane="1"/>

<vehicle id="85" depart="189.09" type="type2" route="2" departLane="0"/>

<vehicle id="86" depart="192.15" type="type3" route="2" departLane="0"/>

<vehicle id="87" depart="193.33" type="type2" route="0" departLane="2"/>

<vehicle id="88" depart="193.99" type="type1" route="0" departLane="4"/>

<vehicle id="89" depart="195.19" type="type3" route="0" departLane="0"/>

<vehicle id="90" depart="195.34" type="type3" route="2" departLane="0"/>

<vehicle id="91" depart="195.7" type="type2" route="0" departLane="0"/>

<vehicle id="92" depart="199.69" type="type2" route="1" departLane="1"/>

<vehicle id="93" depart="199.7" type="type3" route="2" departLane="0"/>

<vehicle id="94" depart="201.43" type="type2" route="2" departLane="0"/>

<vehicle id="95" depart="204.13" type="type0" route="2" departLane="0"/>

<vehicle id="96" depart="210.24" type="type3" route="0" departLane="4"/>

<vehicle id="97" depart="210.55" type="type2" route="0" departLane="4"/>

<vehicle id="98" depart="216.53" type="type3" route="0" departLane="0"/>

<vehicle id="99" depart="216.61" type="type3" route="0" departLane="1"/>

<vehicle id="100" depart="219.48" type="type3" route="2" departLane="0"/>

<vehicle id="101" depart="227.4" type="type3" route="0" departLane="3"/>

<vehicle id="102" depart="230.76" type="type3" route="2" departLane="0"/>

<vehicle id="103" depart="239.59" type="type1" route="2" departLane="0"/>

<vehicle id="104" depart="241.64" type="type2" route="1" departLane="3"/>

<vehicle id="105" depart="245.33" type="type0" route="2" departLane="0"/>

<vehicle id="106" depart="245.76" type="type0" route="2" departLane="0"/>

<vehicle id="107" depart="248.23" type="type2" route="2" departLane="0"/>

<vehicle id="108" depart="250.33" type="type3" route="0" departLane="2"/>

<vehicle id="109" depart="261.78" type="type1" route="2" departLane="0"/>

<vehicle id="110" depart="262.17" type="type1" route="2" departLane="0"/>

<vehicle id="111" depart="265.8" type="type3" route="0" departLane="0"/>

<vehicle id="112" depart="265.93" type="type3" route="1" departLane="3"/>

<vehicle id="113" depart="271.39" type="type3" route="0" departLane="2"/>

<vehicle id="114" depart="271.9" type="type3" route="0" departLane="2"/>

<vehicle id="115" depart="272.15" type="type3" route="0" departLane="3"/>

<vehicle id="116" depart="272.29" type="type3" route="0" departLane="1"/>

<vehicle id="117" depart="274.15" type="type2" route="0" departLane="3"/>

<vehicle id="118" depart="276.51" type="type2" route="0" departLane="3"/>

<vehicle id="119" depart="277.44" type="type2" route="2" departLane="0"/>

<vehicle id="120" depart="279.12" type="type2" route="2" departLane="0"/>

<vehicle id="121" depart="284.68" type="type3" route="2" departLane="0"/>

<vehicle id="122" depart="285.46" type="type2" route="2" departLane="0"/>

<vehicle id="123" depart="285.98" type="type0" route="0" departLane="4"/>

<vehicle id="124" depart="290.98" type="type2" route="0" departLane="4"/>

<vehicle id="125" depart="294.45" type="type3" route="2" departLane="0"/>

<vehicle id="126" depart="298.22" type="type0" route="2" departLane="0"/>

<vehicle id="127" depart="298.35" type="type3" route="1" departLane="3"/>

<vehicle id="128" depart="308.18" type="type0" route="0" departLane="2"/>

<vehicle id="129" depart="311.28" type="type3" route="2" departLane="0"/>

<vehicle id="130" depart="311.85" type="type3" route="0" departLane="3"/>

<vehicle id="131" depart="313.25" type="type2" route="0" departLane="2"/>

<vehicle id="132" depart="314.43" type="type2" route="0" departLane="3"/>

<vehicle id="133" depart="317.35" type="type3" route="0" departLane="0"/>

<vehicle id="134" depart="320.07" type="type2" route="0" departLane="2"/>

<vehicle id="135" depart="325.73" type="type3" route="0" departLane="2"/>

<vehicle id="136" depart="326.49" type="type2" route="2" departLane="0"/>

<vehicle id="137" depart="331.71" type="type1" route="0" departLane="0"/>

<vehicle id="138" depart="333.31" type="type2" route="2" departLane="0"/>

<vehicle id="139" depart="335.53" type="type2" route="0" departLane="3"/>

<vehicle id="140" depart="339.8" type="type2" route="1" departLane="4"/>

<vehicle id="141" depart="340.77" type="type2" route="2" departLane="0"/>

<vehicle id="142" depart="341.76" type="type3" route="1" departLane="2"/>

<vehicle id="143" depart="348.8" type="type3" route="0" departLane="4"/>

<vehicle id="144" depart="353.56" type="type3" route="2" departLane="0"/>

<vehicle id="145" depart="354.61" type="type2" route="0" departLane="3"/>

<vehicle id="146" depart="357.57" type="type3" route="1" departLane="3"/>

<vehicle id="147" depart="360.17" type="type2" route="2" departLane="0"/>

<vehicle id="148" depart="364.88" type="type3" route="1" departLane="3"/>

<vehicle id="149" depart="367.17" type="type3" route="2" departLane="0"/>

<vehicle id="150" depart="372.36" type="type1" route="0" departLane="0"/>

<vehicle id="151" depart="376.27" type="type3" route="0" departLane="0"/>

<vehicle id="152" depart="381.43" type="type3" route="2" departLane="0"/>

<vehicle id="153" depart="384.82" type="type2" route="2" departLane="0"/>

<vehicle id="154" depart="385.71" type="type2" route="0" departLane="2"/>

<vehicle id="155" depart="387.71" type="type3" route="2" departLane="0"/>

<vehicle id="156" depart="388.98" type="type3" route="2" departLane="0"/>

<vehicle id="157" depart="389.73" type="type3" route="0" departLane="3"/>

<vehicle id="158" depart="392.83" type="type2" route="0" departLane="1"/>

<vehicle id="159" depart="393.54" type="type0" route="1" departLane="3"/>

<vehicle id="160" depart="398.47" type="type1" route="2" departLane="0"/>

<vehicle id="161" depart="400.91" type="type3" route="2" departLane="0"/>

<vehicle id="162" depart="402.87" type="type3" route="0" departLane="3"/>

<vehicle id="163" depart="403.85" type="type3" route="1" departLane="4"/>

<vehicle id="164" depart="407.15" type="type2" route="0" departLane="0"/>

<vehicle id="165" depart="411.38" type="type0" route="1" departLane="3"/>

<vehicle id="166" depart="415.57" type="type3" route="0" departLane="0"/>

<vehicle id="167" depart="415.98" type="type2" route="0" departLane="0"/>

<vehicle id="168" depart="426.65" type="type2" route="0" departLane="1"/>

<vehicle id="169" depart="428.15" type="type3" route="0" departLane="1"/>

<vehicle id="170" depart="434.14" type="type2" route="0" departLane="1"/>

<vehicle id="171" depart="438.99" type="type0" route="2" departLane="0"/>

<vehicle id="172" depart="441.46" type="type1" route="1" departLane="3"/>

<vehicle id="173" depart="444.03" type="type1" route="0" departLane="3"/>

<vehicle id="174" depart="454.9" type="type3" route="2" departLane="0"/>

<vehicle id="175" depart="455.54" type="type2" route="1" departLane="0"/>

<vehicle id="176" depart="459.59" type="type2" route="0" departLane="0"/>

<vehicle id="177" depart="460.0" type="type3" route="0" departLane="4"/>

<vehicle id="178" depart="462.81" type="type1" route="1" departLane="2"/>

<vehicle id="179" depart="465.93" type="type1" route="0" departLane="3"/>

<vehicle id="180" depart="467.29" type="type3" route="2" departLane="0"/>

<vehicle id="181" depart="468.04" type="type2" route="2" departLane="0"/>

<vehicle id="182" depart="471.26" type="type3" route="1" departLane="4"/>

<vehicle id="183" depart="474.54" type="type3" route="0" departLane="4"/>

<vehicle id="184" depart="476.13" type="type3" route="1" departLane="0"/>

<vehicle id="185" depart="476.29" type="type1" route="1" departLane="3"/>

<vehicle id="186" depart="476.57" type="type3" route="0" departLane="4"/>

<vehicle id="187" depart="478.68" type="type3" route="0" departLane="3"/>

<vehicle id="188" depart="478.78" type="type3" route="2" departLane="0"/>

<vehicle id="189" depart="480.21" type="type2" route="1" departLane="2"/>

<vehicle id="190" depart="480.33" type="type3" route="0" departLane="3"/>

<vehicle id="191" depart="483.96" type="type2" route="0" departLane="3"/>

<vehicle id="192" depart="484.0" type="type0" route="0" departLane="1"/>

<vehicle id="193" depart="484.05" type="type2" route="0" departLane="3"/>

<vehicle id="194" depart="485.85" type="type2" route="1" departLane="4"/>

<vehicle id="195" depart="488.25" type="type2" route="2" departLane="0"/>

<vehicle id="196" depart="490.67" type="type1" route="1" departLane="0"/>

<vehicle id="197" depart="497.74" type="type2" route="0" departLane="1"/>

<vehicle id="198" depart="502.44" type="type3" route="0" departLane="0"/>

<vehicle id="199" depart="503.81" type="type3" route="0" departLane="4"/>

<vehicle id="200" depart="503.85" type="type3" route="2" departLane="0"/>

<vehicle id="201" depart="507.23" type="type0" route="1" departLane="1"/>

<vehicle id="202" depart="512.8" type="type2" route="0" departLane="0"/>

<vehicle id="203" depart="513.96" type="type3" route="0" departLane="2"/>

<vehicle id="204" depart="517.97" type="type2" route="0" departLane="4"/>

<vehicle id="205" depart="518.57" type="type1" route="0" departLane="0"/>

<vehicle id="206" depart="519.46" type="type2" route="1" departLane="1"/>

<vehicle id="207" depart="521.67" type="type2" route="0" departLane="3"/>

<vehicle id="208" depart="528.86" type="type3" route="1" departLane="4"/>

<vehicle id="209" depart="530.13" type="type3" route="2" departLane="0"/>

<vehicle id="210" depart="534.04" type="type2" route="0" departLane="0"/>

<vehicle id="211" depart="534.34" type="type3" route="2" departLane="0"/>

<vehicle id="212" depart="537.83" type="type3" route="2" departLane="0"/>

<vehicle id="213" depart="538.08" type="type3" route="2" departLane="0"/>

<vehicle id="214" depart="542.34" type="type2" route="0" departLane="3"/>

<vehicle id="215" depart="542.71" type="type3" route="0" departLane="2"/>

<vehicle id="216" depart="543.35" type="type1" route="1" departLane="3"/>

<vehicle id="217" depart="547.38" type="type1" route="2" departLane="0"/>

<vehicle id="218" depart="553.12" type="type3" route="2" departLane="0"/>

<vehicle id="219" depart="555.72" type="type2" route="2" departLane="0"/>

<vehicle id="220" depart="562.48" type="type0" route="2" departLane="0"/>

<vehicle id="221" depart="563.99" type="type2" route="2" departLane="0"/>

<vehicle id="222" depart="564.98" type="type3" route="0" departLane="4"/>

<vehicle id="223" depart="570.85" type="type2" route="0" departLane="3"/>

<vehicle id="224" depart="572.39" type="type2" route="2" departLane="0"/>

<vehicle id="225" depart="577.83" type="type3" route="2" departLane="0"/>

<vehicle id="226" depart="578.2" type="type2" route="0" departLane="3"/>

<vehicle id="227" depart="579.97" type="type2" route="2" departLane="0"/>

<vehicle id="228" depart="582.85" type="type3" route="0" departLane="3"/>

<vehicle id="229" depart="588.26" type="type3" route="1" departLane="3"/>

<vehicle id="230" depart="589.83" type="type2" route="2" departLane="0"/>

<vehicle id="231" depart="590.18" type="type3" route="1" departLane="3"/>

<vehicle id="232" depart="590.36" type="type2" route="0" departLane="4"/>

<vehicle id="233" depart="591.94" type="type1" route="2" departLane="0"/>

<vehicle id="234" depart="596.47" type="type3" route="0" departLane="4"/>

<vehicle id="235" depart="599.45" type="type2" route="1" departLane="0"/>

<vehicle id="236" depart="599.83" type="type3" route="1" departLane="4"/>

<vehicle id="237" depart="599.96" type="type3" route="2" departLane="0"/>

<vehicle id="238" depart="600.22" type="type2" route="0" departLane="4"/>

<vehicle id="239" depart="600.64" type="type2" route="0" departLane="3"/>

<vehicle id="240" depart="600.99" type="type3" route="2" departLane="0"/>

<vehicle id="241" depart="603.62" type="type3" route="0" departLane="2"/>

<vehicle id="242" depart="603.68" type="type3" route="0" departLane="2"/>

<vehicle id="243" depart="606.35" type="type3" route="2" departLane="0"/>

<vehicle id="244" depart="606.78" type="type3" route="1" departLane="1"/>

<vehicle id="245" depart="612.64" type="type3" route="0" departLane="0"/>

<vehicle id="246" depart="613.17" type="type2" route="0" departLane="2"/>

<vehicle id="247" depart="617.21" type="type2" route="0" departLane="0"/>

<vehicle id="248" depart="617.86" type="type3" route="2" departLane="0"/>

<vehicle id="249" depart="622.62" type="type2" route="1" departLane="2"/>

<vehicle id="250" depart="623.36" type="type2" route="0" departLane="1"/>

<vehicle id="251" depart="623.48" type="type3" route="2" departLane="0"/>

<vehicle id="252" depart="623.48" type="type3" route="0" departLane="1"/>

<vehicle id="253" depart="626.79" type="type2" route="1" departLane="2"/>

<vehicle id="254" depart="627.33" type="type1" route="0" departLane="4"/>

<vehicle id="255" depart="628.64" type="type1" route="1" departLane="2"/>

<vehicle id="256" depart="629.88" type="type3" route="2" departLane="0"/>

<vehicle id="257" depart="631.93" type="type3" route="0" departLane="1"/>

<vehicle id="258" depart="633.18" type="type2" route="2" departLane="0"/>

<vehicle id="259" depart="641.19" type="type2" route="2" departLane="0"/>

<vehicle id="260" depart="641.74" type="type3" route="0" departLane="2"/>

<vehicle id="261" depart="652.75" type="type2" route="2" departLane="0"/>

<vehicle id="262" depart="658.31" type="type2" route="2" departLane="0"/>

<vehicle id="263" depart="663.29" type="type3" route="0" departLane="4"/>

<vehicle id="264" depart="667.86" type="type2" route="0" departLane="1"/>

<vehicle id="265" depart="670.32" type="type2" route="0" departLane="2"/>

<vehicle id="266" depart="670.75" type="type2" route="2" departLane="0"/>

<vehicle id="267" depart="674.86" type="type2" route="0" departLane="4"/>

<vehicle id="268" depart="675.85" type="type2" route="2" departLane="0"/>

<vehicle id="269" depart="677.28" type="type0" route="2" departLane="0"/>

<vehicle id="270" depart="677.39" type="type3" route="2" departLane="0"/>

<vehicle id="271" depart="677.98" type="type2" route="0" departLane="1"/>

<vehicle id="272" depart="678.14" type="type3" route="0" departLane="0"/>

<vehicle id="273" depart="680.51" type="type3" route="0" departLane="3"/>

<vehicle id="274" depart="687.48" type="type3" route="1" departLane="0"/>

<vehicle id="275" depart="687.67" type="type0" route="1" departLane="4"/>

<vehicle id="276" depart="687.83" type="type2" route="1" departLane="2"/>

<vehicle id="277" depart="689.25" type="type3" route="0" departLane="1"/>

<vehicle id="278" depart="691.2" type="type3" route="0" departLane="2"/>

<vehicle id="279" depart="698.01" type="type2" route="0" departLane="1"/>

<vehicle id="280" depart="698.51" type="type2" route="0" departLane="2"/>

<vehicle id="281" depart="698.84" type="type3" route="0" departLane="4"/>

<vehicle id="282" depart="700.47" type="type2" route="0" departLane="0"/>

<vehicle id="283" depart="701.91" type="type2" route="2" departLane="0"/>

<vehicle id="284" depart="709.08" type="type3" route="1" departLane="3"/>

<vehicle id="285" depart="712.3" type="type2" route="0" departLane="3"/>

<vehicle id="286" depart="712.42" type="type3" route="2" departLane="0"/>

<vehicle id="287" depart="713.17" type="type3" route="0" departLane="4"/>

<vehicle id="288" depart="714.9" type="type3" route="0" departLane="0"/>

<vehicle id="289" depart="715.55" type="type1" route="0" departLane="1"/>

<vehicle id="290" depart="717.3" type="type3" route="0" departLane="1"/>

<vehicle id="291" depart="717.5" type="type2" route="2" departLane="0"/>

<vehicle id="292" depart="722.53" type="type3" route="0" departLane="3"/>

<vehicle id="293" depart="723.64" type="type2" route="0" departLane="0"/>

<vehicle id="294" depart="724.58" type="type2" route="0" departLane="1"/>

<vehicle id="295" depart="732.44" type="type3" route="0" departLane="4"/>

<vehicle id="296" depart="732.76" type="type2" route="0" departLane="3"/>

<vehicle id="297" depart="734.38" type="type3" route="0" departLane="4"/>

<vehicle id="298" depart="735.24" type="type2" route="0" departLane="4"/>

<vehicle id="299" depart="738.91" type="type3" route="0" departLane="2"/>

<vehicle id="300" depart="739.18" type="type3" route="2" departLane="0"/>

<vehicle id="301" depart="742.08" type="type3" route="0" departLane="4"/>

<vehicle id="302" depart="743.81" type="type3" route="0" departLane="0"/>

<vehicle id="303" depart="748.64" type="type3" route="0" departLane="0"/>

<vehicle id="304" depart="749.45" type="type2" route="2" departLane="0"/>

<vehicle id="305" depart="750.32" type="type1" route="0" departLane="2"/>

<vehicle id="306" depart="753.19" type="type3" route="0" departLane="2"/>

<vehicle id="307" depart="753.89" type="type3" route="0" departLane="1"/>

<vehicle id="308" depart="757.01" type="type3" route="0" departLane="2"/>

<vehicle id="309" depart="759.16" type="type1" route="0" departLane="4"/>

<vehicle id="310" depart="761.44" type="type0" route="0" departLane="3"/>

<vehicle id="311" depart="761.52" type="type3" route="0" departLane="1"/>

<vehicle id="312" depart="765.86" type="type3" route="0" departLane="0"/>

<vehicle id="313" depart="779.2" type="type3" route="0" departLane="3"/>

<vehicle id="314" depart="782.95" type="type3" route="0" departLane="3"/>

<vehicle id="315" depart="783.72" type="type1" route="2" departLane="0"/>

<vehicle id="316" depart="787.31" type="type2" route="0" departLane="0"/>

<vehicle id="317" depart="788.4" type="type3" route="0" departLane="3"/>

<vehicle id="318" depart="791.0" type="type2" route="1" departLane="2"/>

<vehicle id="319" depart="794.13" type="type3" route="0" departLane="0"/>

<vehicle id="320" depart="795.09" type="type1" route="0" departLane="2"/>

<vehicle id="321" depart="795.18" type="type2" route="0" departLane="0"/>

<vehicle id="322" depart="796.84" type="type3" route="2" departLane="0"/>

<vehicle id="323" depart="807.55" type="type3" route="2" departLane="0"/>

<vehicle id="324" depart="808.26" type="type0" route="0" departLane="1"/>

<vehicle id="325" depart="809.87" type="type3" route="2" departLane="0"/>

<vehicle id="326" depart="810.29" type="type3" route="1" departLane="3"/>

<vehicle id="327" depart="815.19" type="type2" route="1" departLane="2"/>

<vehicle id="328" depart="817.28" type="type2" route="1" departLane="0"/>

<vehicle id="329" depart="817.71" type="type2" route="0" departLane="0"/>

<vehicle id="330" depart="819.41" type="type1" route="0" departLane="0"/>

<vehicle id="331" depart="832.3" type="type3" route="0" departLane="4"/>

<vehicle id="332" depart="833.81" type="type0" route="1" departLane="4"/>

<vehicle id="333" depart="834.59" type="type2" route="2" departLane="0"/>

<vehicle id="334" depart="835.29" type="type2" route="0" departLane="4"/>

<vehicle id="335" depart="836.81" type="type2" route="0" departLane="0"/>

<vehicle id="336" depart="838.73" type="type3" route="0" departLane="4"/>

<vehicle id="337" depart="839.92" type="type2" route="0" departLane="0"/>

<vehicle id="338" depart="841.03" type="type2" route="2" departLane="0"/>

<vehicle id="339" depart="842.15" type="type3" route="0" departLane="4"/>

<vehicle id="340" depart="842.59" type="type3" route="0" departLane="3"/>

<vehicle id="341" depart="846.17" type="type3" route="0" departLane="0"/>

<vehicle id="342" depart="846.18" type="type2" route="0" departLane="1"/>

<vehicle id="343" depart="848.1" type="type2" route="0" departLane="0"/>

<vehicle id="344" depart="850.02" type="type3" route="0" departLane="2"/>

<vehicle id="345" depart="850.95" type="type3" route="0" departLane="3"/>

<vehicle id="346" depart="851.42" type="type2" route="1" departLane="0"/>

<vehicle id="347" depart="851.46" type="type3" route="0" departLane="3"/>

<vehicle id="348" depart="857.15" type="type2" route="2" departLane="0"/>

<vehicle id="349" depart="861.38" type="type2" route="0" departLane="0"/>

<vehicle id="350" depart="862.0" type="type2" route="2" departLane="0"/>

<vehicle id="351" depart="862.56" type="type3" route="0" departLane="2"/>

<vehicle id="352" depart="862.74" type="type3" route="2" departLane="0"/>

<vehicle id="353" depart="865.51" type="type1" route="0" departLane="0"/>

<vehicle id="354" depart="872.96" type="type3" route="0" departLane="1"/>

<vehicle id="355" depart="875.21" type="type2" route="0" departLane="3"/>

<vehicle id="356" depart="876.8" type="type0" route="0" departLane="4"/>

<vehicle id="357" depart="877.85" type="type3" route="1" departLane="4"/>

<vehicle id="358" depart="880.13" type="type3" route="0" departLane="2"/>

<vehicle id="359" depart="884.13" type="type2" route="2" departLane="0"/>

<vehicle id="360" depart="889.43" type="type2" route="0" departLane="1"/>

<vehicle id="361" depart="891.38" type="type1" route="1" departLane="4"/>

<vehicle id="362" depart="891.87" type="type3" route="2" departLane="0"/>

<vehicle id="363" depart="894.87" type="type2" route="0" departLane="1"/>

<vehicle id="364" depart="896.43" type="type3" route="2" departLane="0"/>

<vehicle id="365" depart="897.7" type="type2" route="1" departLane="3"/>

<vehicle id="366" depart="898.3" type="type2" route="0" departLane="0"/>

<vehicle id="367" depart="902.79" type="type2" route="0" departLane="1"/>

<vehicle id="368" depart="904.91" type="type3" route="0" departLane="1"/>

<vehicle id="369" depart="906.64" type="type0" route="0" departLane="0"/>

<vehicle id="370" depart="915.28" type="type2" route="0" departLane="3"/>

<vehicle id="371" depart="919.86" type="type3" route="1" departLane="2"/>

<vehicle id="372" depart="921.3" type="type3" route="0" departLane="0"/>

<vehicle id="373" depart="923.75" type="type3" route="0" departLane="2"/>

<vehicle id="374" depart="925.54" type="type2" route="0" departLane="2"/>

<vehicle id="375" depart="925.83" type="type3" route="2" departLane="0"/>

<vehicle id="376" depart="927.62" type="type2" route="2" departLane="0"/>

<vehicle id="377" depart="929.95" type="type2" route="0" departLane="3"/>

<vehicle id="378" depart="933.83" type="type3" route="2" departLane="0"/>

<vehicle id="379" depart="939.65" type="type2" route="0" departLane="1"/>

<vehicle id="380" depart="941.23" type="type2" route="2" departLane="0"/>

<vehicle id="381" depart="948.01" type="type3" route="0" departLane="3"/>

<vehicle id="382" depart="950.64" type="type2" route="2" departLane="0"/>

<vehicle id="383" depart="953.07" type="type2" route="0" departLane="2"/>

<vehicle id="384" depart="954.7" type="type2" route="0" departLane="4"/>

<vehicle id="385" depart="956.7" type="type2" route="0" departLane="4"/>

<vehicle id="386" depart="966.93" type="type1" route="0" departLane="3"/>

<vehicle id="387" depart="970.4" type="type3" route="1" departLane="4"/>

<vehicle id="388" depart="971.74" type="type2" route="0" departLane="3"/>

<vehicle id="389" depart="971.9" type="type3" route="0" departLane="4"/>

<vehicle id="390" depart="974.11" type="type1" route="2" departLane="0"/>

<vehicle id="391" depart="977.42" type="type0" route="2" departLane="0"/>

<vehicle id="392" depart="977.62" type="type3" route="1" departLane="2"/>

<vehicle id="393" depart="982.16" type="type3" route="0" departLane="1"/>

<vehicle id="394" depart="984.87" type="type2" route="1" departLane="2"/>
